support/feeders/R5-12.47-5.glm
clock {
     timezone EST+5EDT;
     timestamp '2000-01-01 0:00:00';
     stoptime '2000-01-01 0:01:00';
}
#set profiler=1
module tape;
module powerflow{
     solver_method NR;
      default_maximum_voltage_error 1e-6;
};

object transformer_configuration {
  name XF1_PADMOUNT_AS_25;
  power_rating 25.00;
  powerA_rating 25.00;
  powerB_rating 0.0;
  powerC_rating 0.0;
  install_type PADMOUNT;
  connect_type SINGLE_PHASE_CENTER_TAPPED;
  primary_voltage 7200.0;
  secondary_voltage 120.0;
  resistance 0.00800;
  resistance1 0.01600;
  resistance2 0.01600;
  reactance 0.01208;
  reactance1 0.00604;
  reactance2 0.00604;
  shunt_resistance 192.31;
  shunt_reactance 51.81;
}
object transformer_configuration {
  name XF1_POLETOP_BS_15;
  power_rating 15.00;
  powerA_rating 0.0;
  powerB_rating 15.00;
  powerC_rating 0.0;
  install_type POLETOP;
  connect_type SINGLE_PHASE_CENTER_TAPPED;
  primary_voltage 7200.0;
  secondary_voltage 120.0;
  resistance 0.00850;
  resistance1 0.01700;
  resistance2 0.01700;
  reactance 0.01176;
  reactance1 0.00588;
  reactance2 0.00588;
  shunt_resistance 166.67;
  shunt_reactance 39.53;
}
object transformer_configuration {
  name XF1_POLETOP_AS_10;
  power_rating 10.00;
  powerA_rating 10.00;
  powerB_rating 0.0;
  powerC_rating 0.0;
  install_type POLETOP;
  connect_type SINGLE_PHASE_CENTER_TAPPED;
  primary_voltage 7200.0;
  secondary_voltage 120.0;
  resistance 0.00950;
  resistance1 0.01900;
  resistance2 0.01900;
  reactance 0.01040;
  reactance1 0.00520;
  reactance2 0.00520;
  shunt_resistance 147.06;
  shunt_reactance 34.25;
}
object transformer_configuration {
  name XF1_PADMOUNT_AS_5;
  power_rating 5.00;
  powerA_rating 5.00;
  powerB_rating 0.0;
  powerC_rating 0.0;
  install_type PADMOUNT;
  connect_type SINGLE_PHASE_CENTER_TAPPED;
  primary_voltage 7200.0;
  secondary_voltage 120.0;
  resistance 0.01050;
  resistance1 0.02100;
  resistance2 0.02100;
  reactance 0.01224;
  reactance1 0.00612;
  reactance2 0.00612;
  shunt_resistance 111.11;
  shunt_reactance 29.59;
}
object transformer_configuration {
  name XF1_PADMOUNT_BS_10;
  power_rating 10.00;
  powerA_rating 0.0;
  powerB_rating 10.00;
  powerC_rating 0.0;
  install_type PADMOUNT;
  connect_type SINGLE_PHASE_CENTER_TAPPED;
  primary_voltage 7200.0;
  secondary_voltage 120.0;
  resistance 0.00950;
  resistance1 0.01900;
  resistance2 0.01900;
  reactance 0.01040;
  reactance1 0.00520;
  reactance2 0.00520;
  shunt_resistance 147.06;
  shunt_reactance 34.25;
}
object transformer_configuration {
  name XF1_PADMOUNT_CS_5;
  power_rating 5.00;
  powerA_rating 0.0;
  powerB_rating 0.0;
  powerC_rating 5.00;
  install_type PADMOUNT;
  connect_type SINGLE_PHASE_CENTER_TAPPED;
  primary_voltage 7200.0;
  secondary_voltage 120.0;
  resistance 0.01050;
  resistance1 0.02100;
  resistance2 0.02100;
  reactance 0.01224;
  reactance1 0.00612;
  reactance2 0.00612;
  shunt_resistance 111.11;
  shunt_reactance 29.59;
}
object transformer_configuration {
  name XF1_PADMOUNT_BS_25;
  power_rating 25.00;
  powerA_rating 0.0;
  powerB_rating 25.00;
  powerC_rating 0.0;
  install_type PADMOUNT;
  connect_type SINGLE_PHASE_CENTER_TAPPED;
  primary_voltage 7200.0;
  secondary_voltage 120.0;
  resistance 0.00800;
  resistance1 0.01600;
  resistance2 0.01600;
  reactance 0.01208;
  reactance1 0.00604;
  reactance2 0.00604;
  shunt_resistance 192.31;
  shunt_reactance 51.81;
}
object transformer_configuration {
  name XF1_POLETOP_CS_15;
  power_rating 15.00;
  powerA_rating 0.0;
  powerB_rating 0.0;
  powerC_rating 15.00;
  install_type POLETOP;
  connect_type SINGLE_PHASE_CENTER_TAPPED;
  primary_voltage 7200.0;
  secondary_voltage 120.0;
  resistance 0.00850;
  resistance1 0.01700;
  resistance2 0.01700;
  reactance 0.01176;
  reactance1 0.00588;
  reactance2 0.00588;
  shunt_resistance 166.67;
  shunt_reactance 39.53;
}
object transformer_configuration {
  name XF1_POLETOP_BS_10;
  power_rating 10.00;
  powerA_rating 0.0;
  powerB_rating 10.00;
  powerC_rating 0.0;
  install_type POLETOP;
  connect_type SINGLE_PHASE_CENTER_TAPPED;
  primary_voltage 7200.0;
  secondary_voltage 120.0;
  resistance 0.00950;
  resistance1 0.01900;
  resistance2 0.01900;
  reactance 0.01040;
  reactance1 0.00520;
  reactance2 0.00520;
  shunt_resistance 147.06;
  shunt_reactance 34.25;
}
object transformer_configuration {
  name XF1_POLETOP_CS_10;
  power_rating 10.00;
  powerA_rating 0.0;
  powerB_rating 0.0;
  powerC_rating 10.00;
  install_type POLETOP;
  connect_type SINGLE_PHASE_CENTER_TAPPED;
  primary_voltage 7200.0;
  secondary_voltage 120.0;
  resistance 0.00950;
  resistance1 0.01900;
  resistance2 0.01900;
  reactance 0.01040;
  reactance1 0.00520;
  reactance2 0.00520;
  shunt_resistance 147.06;
  shunt_reactance 34.25;
}
object transformer_configuration {
  name XF1_POLETOP_AS_15;
  power_rating 15.00;
  powerA_rating 15.00;
  powerB_rating 0.0;
  powerC_rating 0.0;
  install_type POLETOP;
  connect_type SINGLE_PHASE_CENTER_TAPPED;
  primary_voltage 7200.0;
  secondary_voltage 120.0;
  resistance 0.00850;
  resistance1 0.01700;
  resistance2 0.01700;
  reactance 0.01176;
  reactance1 0.00588;
  reactance2 0.00588;
  shunt_resistance 166.67;
  shunt_reactance 39.53;
}
object transformer_configuration {
  name XF1_POLETOP_BS_25;
  power_rating 25.00;
  powerA_rating 0.0;
  powerB_rating 25.00;
  powerC_rating 0.0;
  install_type POLETOP;
  connect_type SINGLE_PHASE_CENTER_TAPPED;
  primary_voltage 7200.0;
  secondary_voltage 120.0;
  resistance 0.00800;
  resistance1 0.01600;
  resistance2 0.01600;
  reactance 0.01208;
  reactance1 0.00604;
  reactance2 0.00604;
  shunt_resistance 192.31;
  shunt_reactance 51.81;
}
object transformer_configuration {
  name XF1_POLETOP_AS_37p5;
  power_rating 37.50;
  powerA_rating 37.50;
  powerB_rating 0.0;
  powerC_rating 0.0;
  install_type POLETOP;
  connect_type SINGLE_PHASE_CENTER_TAPPED;
  primary_voltage 7200.0;
  secondary_voltage 120.0;
  resistance 0.00725;
  resistance1 0.01450;
  resistance2 0.01450;
  reactance 0.01320;
  reactance1 0.00660;
  reactance2 0.00660;
  shunt_resistance 212.77;
  shunt_reactance 57.47;
}
object transformer_configuration {
  name XF1_POLETOP_AS_5;
  power_rating 5.00;
  powerA_rating 5.00;
  powerB_rating 0.0;
  powerC_rating 0.0;
  install_type POLETOP;
  connect_type SINGLE_PHASE_CENTER_TAPPED;
  primary_voltage 7200.0;
  secondary_voltage 120.0;
  resistance 0.01050;
  resistance1 0.02100;
  resistance2 0.02100;
  reactance 0.01224;
  reactance1 0.00612;
  reactance2 0.00612;
  shunt_resistance 111.11;
  shunt_reactance 29.59;
}
object transformer_configuration {
  name XF1_POLETOP_BS_37p5;
  power_rating 37.50;
  powerA_rating 0.0;
  powerB_rating 37.50;
  powerC_rating 0.0;
  install_type POLETOP;
  connect_type SINGLE_PHASE_CENTER_TAPPED;
  primary_voltage 7200.0;
  secondary_voltage 120.0;
  resistance 0.00725;
  resistance1 0.01450;
  resistance2 0.01450;
  reactance 0.01320;
  reactance1 0.00660;
  reactance2 0.00660;
  shunt_resistance 212.77;
  shunt_reactance 57.47;
}
object transformer_configuration {
  name XF1_POLETOP_CS_25;
  power_rating 25.00;
  powerA_rating 0.0;
  powerB_rating 0.0;
  powerC_rating 25.00;
  install_type POLETOP;
  connect_type SINGLE_PHASE_CENTER_TAPPED;
  primary_voltage 7200.0;
  secondary_voltage 120.0;
  resistance 0.00800;
  resistance1 0.01600;
  resistance2 0.01600;
  reactance 0.01208;
  reactance1 0.00604;
  reactance2 0.00604;
  shunt_resistance 192.31;
  shunt_reactance 51.81;
}
object transformer_configuration {
  name XF1_POLETOP_AS_25;
  power_rating 25.00;
  powerA_rating 25.00;
  powerB_rating 0.0;
  powerC_rating 0.0;
  install_type POLETOP;
  connect_type SINGLE_PHASE_CENTER_TAPPED;
  primary_voltage 7200.0;
  secondary_voltage 120.0;
  resistance 0.00800;
  resistance1 0.01600;
  resistance2 0.01600;
  reactance 0.01208;
  reactance1 0.00604;
  reactance2 0.00604;
  shunt_resistance 192.31;
  shunt_reactance 51.81;
}
object transformer_configuration {
  name XF1_POLETOP_CS_5;
  power_rating 5.00;
  powerA_rating 0.0;
  powerB_rating 0.0;
  powerC_rating 5.00;
  install_type POLETOP;
  connect_type SINGLE_PHASE_CENTER_TAPPED;
  primary_voltage 7200.0;
  secondary_voltage 120.0;
  resistance 0.01050;
  resistance1 0.02100;
  resistance2 0.02100;
  reactance 0.01224;
  reactance1 0.00612;
  reactance2 0.00612;
  shunt_resistance 111.11;
  shunt_reactance 29.59;
}
object transformer_configuration {
  name XF1_PADMOUNT_AS_15;
  power_rating 15.00;
  powerA_rating 15.00;
  powerB_rating 0.0;
  powerC_rating 0.0;
  install_type PADMOUNT;
  connect_type SINGLE_PHASE_CENTER_TAPPED;
  primary_voltage 7200.0;
  secondary_voltage 120.0;
  resistance 0.00850;
  resistance1 0.01700;
  resistance2 0.01700;
  reactance 0.01176;
  reactance1 0.00588;
  reactance2 0.00588;
  shunt_resistance 166.67;
  shunt_reactance 39.53;
}
object transformer_configuration {
  name XF1_PADMOUNT_CS_10;
  power_rating 10.00;
  powerA_rating 0.0;
  powerB_rating 0.0;
  powerC_rating 10.00;
  install_type PADMOUNT;
  connect_type SINGLE_PHASE_CENTER_TAPPED;
  primary_voltage 7200.0;
  secondary_voltage 120.0;
  resistance 0.00950;
  resistance1 0.01900;
  resistance2 0.01900;
  reactance 0.01040;
  reactance1 0.00520;
  reactance2 0.00520;
  shunt_resistance 147.06;
  shunt_reactance 34.25;
}
object transformer_configuration {
  name XF1_POLETOP_BS_50;
  power_rating 50.00;
  powerA_rating 0.0;
  powerB_rating 50.00;
  powerC_rating 0.0;
  install_type POLETOP;
  connect_type SINGLE_PHASE_CENTER_TAPPED;
  primary_voltage 7200.0;
  secondary_voltage 120.0;
  resistance 0.00650;
  resistance1 0.01300;
  resistance2 0.01300;
  reactance 0.01416;
  reactance1 0.00708;
  reactance2 0.00708;
  shunt_resistance 222.22;
  shunt_reactance 64.94;
}
object transformer_configuration {
  name XF1_POLETOP_CS_75;
  power_rating 75.00;
  powerA_rating 0.0;
  powerB_rating 0.0;
  powerC_rating 75.00;
  install_type POLETOP;
  connect_type SINGLE_PHASE_CENTER_TAPPED;
  primary_voltage 7200.0;
  secondary_voltage 120.0;
  resistance 0.00625;
  resistance1 0.01250;
  resistance2 0.01250;
  reactance 0.01352;
  reactance1 0.00676;
  reactance2 0.00676;
  shunt_resistance 238.10;
  shunt_reactance 67.11;
}
object transformer_configuration {
  name XF1_POLETOP_CS_37p5;
  power_rating 37.50;
  powerA_rating 0.0;
  powerB_rating 0.0;
  powerC_rating 37.50;
  install_type POLETOP;
  connect_type SINGLE_PHASE_CENTER_TAPPED;
  primary_voltage 7200.0;
  secondary_voltage 120.0;
  resistance 0.00725;
  resistance1 0.01450;
  resistance2 0.01450;
  reactance 0.01320;
  reactance1 0.00660;
  reactance2 0.00660;
  shunt_resistance 212.77;
  shunt_reactance 57.47;
}
object transformer_configuration {
  name XF1_POLETOP_AS_100;
  power_rating 100.00;
  powerA_rating 100.00;
  powerB_rating 0.0;
  powerC_rating 0.0;
  install_type POLETOP;
  connect_type SINGLE_PHASE_CENTER_TAPPED;
  primary_voltage 7200.0;
  secondary_voltage 120.0;
  resistance 0.00600;
  resistance1 0.01200;
  resistance2 0.01200;
  reactance 0.01752;
  reactance1 0.00876;
  reactance2 0.00876;
  shunt_resistance 250.00;
  shunt_reactance 68.97;
}
object transformer_configuration {
  name XF1_POLETOP_AS_50;
  power_rating 50.00;
  powerA_rating 50.00;
  powerB_rating 0.0;
  powerC_rating 0.0;
  install_type POLETOP;
  connect_type SINGLE_PHASE_CENTER_TAPPED;
  primary_voltage 7200.0;
  secondary_voltage 120.0;
  resistance 0.00650;
  resistance1 0.01300;
  resistance2 0.01300;
  reactance 0.01416;
  reactance1 0.00708;
  reactance2 0.00708;
  shunt_resistance 222.22;
  shunt_reactance 64.94;
}
object transformer_configuration {
  name XF1_POLETOP_AS_167;
  power_rating 167.00;
  powerA_rating 167.00;
  powerB_rating 0.0;
  powerC_rating 0.0;
  install_type POLETOP;
  connect_type SINGLE_PHASE_CENTER_TAPPED;
  primary_voltage 7200.0;
  secondary_voltage 120.0;
  resistance 0.00575;
  resistance1 0.01150;
  resistance2 0.01150;
  reactance 0.02216;
  reactance1 0.01108;
  reactance2 0.01108;
  shunt_resistance 263.16;
  shunt_reactance 60.24;
}
object transformer_configuration {
  name XF1_POLETOP_CS_167;
  power_rating 167.00;
  powerA_rating 0.0;
  powerB_rating 0.0;
  powerC_rating 167.00;
  install_type POLETOP;
  connect_type SINGLE_PHASE_CENTER_TAPPED;
  primary_voltage 7200.0;
  secondary_voltage 120.0;
  resistance 0.00575;
  resistance1 0.01150;
  resistance2 0.01150;
  reactance 0.02216;
  reactance1 0.01108;
  reactance2 0.01108;
  shunt_resistance 263.16;
  shunt_reactance 60.24;
}
object transformer_configuration {
  name XF1_POLETOP_CS_50;
  power_rating 50.00;
  powerA_rating 0.0;
  powerB_rating 0.0;
  powerC_rating 50.00;
  install_type POLETOP;
  connect_type SINGLE_PHASE_CENTER_TAPPED;
  primary_voltage 7200.0;
  secondary_voltage 120.0;
  resistance 0.00650;
  resistance1 0.01300;
  resistance2 0.01300;
  reactance 0.01416;
  reactance1 0.00708;
  reactance2 0.00708;
  shunt_resistance 222.22;
  shunt_reactance 64.94;
}
object transformer_configuration {
  name XF1_POLETOP_AS_75;
  power_rating 75.00;
  powerA_rating 75.00;
  powerB_rating 0.0;
  powerC_rating 0.0;
  install_type POLETOP;
  connect_type SINGLE_PHASE_CENTER_TAPPED;
  primary_voltage 7200.0;
  secondary_voltage 120.0;
  resistance 0.00625;
  resistance1 0.01250;
  resistance2 0.01250;
  reactance 0.01352;
  reactance1 0.00676;
  reactance2 0.00676;
  shunt_resistance 238.10;
  shunt_reactance 67.11;
}
object transformer_configuration {
  name XF1_POLETOP_BS_75;
  power_rating 75.00;
  powerA_rating 0.0;
  powerB_rating 75.00;
  powerC_rating 0.0;
  install_type POLETOP;
  connect_type SINGLE_PHASE_CENTER_TAPPED;
  primary_voltage 7200.0;
  secondary_voltage 120.0;
  resistance 0.00625;
  resistance1 0.01250;
  resistance2 0.01250;
  reactance 0.01352;
  reactance1 0.00676;
  reactance2 0.00676;
  shunt_resistance 238.10;
  shunt_reactance 67.11;
}
object transformer_configuration {
  name XF1_PADMOUNT_CS_25;
  power_rating 25.00;
  powerA_rating 0.0;
  powerB_rating 0.0;
  powerC_rating 25.00;
  install_type PADMOUNT;
  connect_type SINGLE_PHASE_CENTER_TAPPED;
  primary_voltage 7200.0;
  secondary_voltage 120.0;
  resistance 0.00800;
  resistance1 0.01600;
  resistance2 0.01600;
  reactance 0.01208;
  reactance1 0.00604;
  reactance2 0.00604;
  shunt_resistance 192.31;
  shunt_reactance 51.81;
}
object transformer_configuration {
  name XF1_POLETOP_BS_167;
  power_rating 167.00;
  powerA_rating 0.0;
  powerB_rating 167.00;
  powerC_rating 0.0;
  install_type POLETOP;
  connect_type SINGLE_PHASE_CENTER_TAPPED;
  primary_voltage 7200.0;
  secondary_voltage 120.0;
  resistance 0.00575;
  resistance1 0.01150;
  resistance2 0.01150;
  reactance 0.02216;
  reactance1 0.01108;
  reactance2 0.01108;
  shunt_resistance 263.16;
  shunt_reactance 60.24;
}
object transformer_configuration {
  name XF1_POLETOP_CS_100;
  power_rating 100.00;
  powerA_rating 0.0;
  powerB_rating 0.0;
  powerC_rating 100.00;
  install_type POLETOP;
  connect_type SINGLE_PHASE_CENTER_TAPPED;
  primary_voltage 7200.0;
  secondary_voltage 120.0;
  resistance 0.00600;
  resistance1 0.01200;
  resistance2 0.01200;
  reactance 0.01752;
  reactance1 0.00876;
  reactance2 0.00876;
  shunt_resistance 250.00;
  shunt_reactance 68.97;
}
object transformer_configuration {
  name XF1_POLETOP_AS_250;
  power_rating 250.00;
  powerA_rating 250.00;
  powerB_rating 0.0;
  powerC_rating 0.0;
  install_type POLETOP;
  connect_type SINGLE_PHASE_CENTER_TAPPED;
  primary_voltage 7200.0;
  secondary_voltage 120.0;
  resistance 0.00550;
  resistance1 0.01100;
  resistance2 0.01100;
  reactance 0.03080;
  reactance1 0.01540;
  reactance2 0.01540;
  shunt_resistance 277.78;
  shunt_reactance 55.25;
}
object transformer_configuration {
  name XF1_POLETOP_BS_250;
  power_rating 250.00;
  powerA_rating 0.0;
  powerB_rating 250.00;
  powerC_rating 0.0;
  install_type POLETOP;
  connect_type SINGLE_PHASE_CENTER_TAPPED;
  primary_voltage 7200.0;
  secondary_voltage 120.0;
  resistance 0.00550;
  resistance1 0.01100;
  resistance2 0.01100;
  reactance 0.03080;
  reactance1 0.01540;
  reactance2 0.01540;
  shunt_resistance 277.78;
  shunt_reactance 55.25;
}
object transformer_configuration {
  name XF1_POLETOP_BS_100;
  power_rating 100.00;
  powerA_rating 0.0;
  powerB_rating 100.00;
  powerC_rating 0.0;
  install_type POLETOP;
  connect_type SINGLE_PHASE_CENTER_TAPPED;
  primary_voltage 7200.0;
  secondary_voltage 120.0;
  resistance 0.00600;
  resistance1 0.01200;
  resistance2 0.01200;
  reactance 0.01752;
  reactance1 0.00876;
  reactance2 0.00876;
  shunt_resistance 250.00;
  shunt_reactance 68.97;
}
object transformer_configuration {
  name XF1_PADMOUNT_BS_15;
  power_rating 15.00;
  powerA_rating 0.0;
  powerB_rating 15.00;
  powerC_rating 0.0;
  install_type PADMOUNT;
  connect_type SINGLE_PHASE_CENTER_TAPPED;
  primary_voltage 7200.0;
  secondary_voltage 120.0;
  resistance 0.00850;
  resistance1 0.01700;
  resistance2 0.01700;
  reactance 0.01176;
  reactance1 0.00588;
  reactance2 0.00588;
  shunt_resistance 166.67;
  shunt_reactance 39.53;
}
object transformer_configuration {
  name XF1_PADMOUNT_CS_15;
  power_rating 15.00;
  powerA_rating 0.0;
  powerB_rating 0.0;
  powerC_rating 15.00;
  install_type PADMOUNT;
  connect_type SINGLE_PHASE_CENTER_TAPPED;
  primary_voltage 7200.0;
  secondary_voltage 120.0;
  resistance 0.00850;
  resistance1 0.01700;
  resistance2 0.01700;
  reactance 0.01176;
  reactance1 0.00588;
  reactance2 0.00588;
  shunt_resistance 166.67;
  shunt_reactance 39.53;
}
object transformer_configuration {
  name XF1_PADMOUNT_AS_75;
  power_rating 75.00;
  powerA_rating 75.00;
  powerB_rating 0.0;
  powerC_rating 0.0;
  install_type PADMOUNT;
  connect_type SINGLE_PHASE_CENTER_TAPPED;
  primary_voltage 7200.0;
  secondary_voltage 120.0;
  resistance 0.00625;
  resistance1 0.01250;
  resistance2 0.01250;
  reactance 0.01352;
  reactance1 0.00676;
  reactance2 0.00676;
  shunt_resistance 238.10;
  shunt_reactance 67.11;
}
object transformer_configuration {
  name XF1_PADMOUNT_CS_37p5;
  power_rating 37.50;
  powerA_rating 0.0;
  powerB_rating 0.0;
  powerC_rating 37.50;
  install_type PADMOUNT;
  connect_type SINGLE_PHASE_CENTER_TAPPED;
  primary_voltage 7200.0;
  secondary_voltage 120.0;
  resistance 0.00725;
  resistance1 0.01450;
  resistance2 0.01450;
  reactance 0.01320;
  reactance1 0.00660;
  reactance2 0.00660;
  shunt_resistance 212.77;
  shunt_reactance 57.47;
}
object transformer_configuration {
  name XF1_PADMOUNT_CS_50;
  power_rating 50.00;
  powerA_rating 0.0;
  powerB_rating 0.0;
  powerC_rating 50.00;
  install_type PADMOUNT;
  connect_type SINGLE_PHASE_CENTER_TAPPED;
  primary_voltage 7200.0;
  secondary_voltage 120.0;
  resistance 0.00650;
  resistance1 0.01300;
  resistance2 0.01300;
  reactance 0.01416;
  reactance1 0.00708;
  reactance2 0.00708;
  shunt_resistance 222.22;
  shunt_reactance 64.94;
}
object transformer_configuration {
  name XF1_PADMOUNT_AS_37p5;
  power_rating 37.50;
  powerA_rating 37.50;
  powerB_rating 0.0;
  powerC_rating 0.0;
  install_type PADMOUNT;
  connect_type SINGLE_PHASE_CENTER_TAPPED;
  primary_voltage 7200.0;
  secondary_voltage 120.0;
  resistance 0.00725;
  resistance1 0.01450;
  resistance2 0.01450;
  reactance 0.01320;
  reactance1 0.00660;
  reactance2 0.00660;
  shunt_resistance 212.77;
  shunt_reactance 57.47;
}
object transformer_configuration {
  name XF1_PADMOUNT_AS_50;
  power_rating 50.00;
  powerA_rating 50.00;
  powerB_rating 0.0;
  powerC_rating 0.0;
  install_type PADMOUNT;
  connect_type SINGLE_PHASE_CENTER_TAPPED;
  primary_voltage 7200.0;
  secondary_voltage 120.0;
  resistance 0.00650;
  resistance1 0.01300;
  resistance2 0.01300;
  reactance 0.01416;
  reactance1 0.00708;
  reactance2 0.00708;
  shunt_resistance 222.22;
  shunt_reactance 64.94;
}
object transformer_configuration {
  name XF1_POLETOP_BS_5;
  power_rating 5.00;
  powerA_rating 0.0;
  powerB_rating 5.00;
  powerC_rating 0.0;
  install_type POLETOP;
  connect_type SINGLE_PHASE_CENTER_TAPPED;
  primary_voltage 7200.0;
  secondary_voltage 120.0;
  resistance 0.01050;
  resistance1 0.02100;
  resistance2 0.02100;
  reactance 0.01224;
  reactance1 0.00612;
  reactance2 0.00612;
  shunt_resistance 111.11;
  shunt_reactance 29.59;
}
object transformer_configuration {
  name XF1_PADMOUNT_AS_10;
  power_rating 10.00;
  powerA_rating 10.00;
  powerB_rating 0.0;
  powerC_rating 0.0;
  install_type PADMOUNT;
  connect_type SINGLE_PHASE_CENTER_TAPPED;
  primary_voltage 7200.0;
  secondary_voltage 120.0;
  resistance 0.00950;
  resistance1 0.01900;
  resistance2 0.01900;
  reactance 0.01040;
  reactance1 0.00520;
  reactance2 0.00520;
  shunt_resistance 147.06;
  shunt_reactance 34.25;
}
object transformer_configuration {
  name XF1_PADMOUNT_BS_5;
  power_rating 5.00;
  powerA_rating 0.0;
  powerB_rating 5.00;
  powerC_rating 0.0;
  install_type PADMOUNT;
  connect_type SINGLE_PHASE_CENTER_TAPPED;
  primary_voltage 7200.0;
  secondary_voltage 120.0;
  resistance 0.01050;
  resistance1 0.02100;
  resistance2 0.02100;
  reactance 0.01224;
  reactance1 0.00612;
  reactance2 0.00612;
  shunt_resistance 111.11;
  shunt_reactance 29.59;
}
object transformer_configuration {
  name XF1_PADMOUNT_BS_50;
  power_rating 50.00;
  powerA_rating 0.0;
  powerB_rating 50.00;
  powerC_rating 0.0;
  install_type PADMOUNT;
  connect_type SINGLE_PHASE_CENTER_TAPPED;
  primary_voltage 7200.0;
  secondary_voltage 120.0;
  resistance 0.00650;
  resistance1 0.01300;
  resistance2 0.01300;
  reactance 0.01416;
  reactance1 0.00708;
  reactance2 0.00708;
  shunt_resistance 222.22;
  shunt_reactance 64.94;
}
object transformer_configuration {
  name XF1_PADMOUNT_BS_37p5;
  power_rating 37.50;
  powerA_rating 0.0;
  powerB_rating 37.50;
  powerC_rating 0.0;
  install_type PADMOUNT;
  connect_type SINGLE_PHASE_CENTER_TAPPED;
  primary_voltage 7200.0;
  secondary_voltage 120.0;
  resistance 0.00725;
  resistance1 0.01450;
  resistance2 0.01450;
  reactance 0.01320;
  reactance1 0.00660;
  reactance2 0.00660;
  shunt_resistance 212.77;
  shunt_reactance 57.47;
}
object transformer_configuration {
  name XF3_POLETOP_ABCN_45;
  power_rating 45.00;
  powerA_rating 15.00;
  powerB_rating 15.00;
  powerC_rating 15.00;
  install_type POLETOP;
  connect_type WYE_WYE;
  primary_voltage 12470.0;
  secondary_voltage 208.0;
  resistance 0.01750;
  reactance 0.02120;
  shunt_resistance 142.86;
  shunt_reactance 25.38;
}
object transformer_configuration {
  name XF3_POLETOP_ABCN_225;
  power_rating 225.00;
  powerA_rating 75.00;
  powerB_rating 75.00;
  powerC_rating 75.00;
  install_type POLETOP;
  connect_type WYE_WYE;
  primary_voltage 12470.0;
  secondary_voltage 480.0;
  resistance 0.01300;
  reactance 0.03520;
  shunt_resistance 200.00;
  shunt_reactance 40.00;
}
object transformer_configuration {
  name XF1_POLETOP_BN_50;
  power_rating 50.00;
  powerA_rating 0.0;
  powerB_rating 50.00;
  powerC_rating 0.0;
  install_type POLETOP;
  connect_type WYE_WYE;
  primary_voltage 12470.0;
  secondary_voltage 208.0;
  resistance 0.01600;
  reactance 0.02420;
  shunt_resistance 158.73;
  shunt_reactance 30.86;
}
object transformer_configuration {
  name XF1_POLETOP_CN_37p5;
  power_rating 37.50;
  powerA_rating 0.0;
  powerB_rating 0.0;
  powerC_rating 37.50;
  install_type POLETOP;
  connect_type WYE_WYE;
  primary_voltage 12470.0;
  secondary_voltage 208.0;
  resistance 0.01750;
  reactance 0.02120;
  shunt_resistance 142.86;
  shunt_reactance 25.38;
}
object transformer_configuration {
  name XF3_POLETOP_ABCN_150;
  power_rating 150.00;
  powerA_rating 50.00;
  powerB_rating 50.00;
  powerC_rating 50.00;
  install_type POLETOP;
  connect_type WYE_WYE;
  primary_voltage 12470.0;
  secondary_voltage 480.0;
  resistance 0.01300;
  reactance 0.03250;
  shunt_resistance 185.19;
  shunt_reactance 36.36;
}
object transformer_configuration {
  name XF1_POLETOP_CN_25;
  power_rating 25.00;
  powerA_rating 0.0;
  powerB_rating 0.0;
  powerC_rating 25.00;
  install_type POLETOP;
  connect_type WYE_WYE;
  primary_voltage 12470.0;
  secondary_voltage 208.0;
  resistance 0.01900;
  reactance 0.01770;
  shunt_resistance 126.58;
  shunt_reactance 22.57;
}
object transformer_configuration {
  name XF3_POLETOP_ABCN_75;
  power_rating 75.00;
  powerA_rating 25.00;
  powerB_rating 25.00;
  powerC_rating 25.00;
  install_type POLETOP;
  connect_type WYE_WYE;
  primary_voltage 12470.0;
  secondary_voltage 208.0;
  resistance 0.01600;
  reactance 0.02420;
  shunt_resistance 158.73;
  shunt_reactance 30.86;
}
object transformer_configuration {
  name XF3_POLETOP_ABCN_500;
  power_rating 500.00;
  powerA_rating 166.67;
  powerB_rating 166.67;
  powerC_rating 166.67;
  install_type POLETOP;
  connect_type WYE_WYE;
  primary_voltage 12470.0;
  secondary_voltage 480.0;
  resistance 0.01100;
  reactance 0.04880;
  shunt_resistance 222.22;
  shunt_reactance 44.25;
}
object transformer_configuration {
  name XF1_POLETOP_AN_50;
  power_rating 50.00;
  powerA_rating 50.00;
  powerB_rating 0.0;
  powerC_rating 0.0;
  install_type POLETOP;
  connect_type WYE_WYE;
  primary_voltage 12470.0;
  secondary_voltage 208.0;
  resistance 0.01600;
  reactance 0.02420;
  shunt_resistance 158.73;
  shunt_reactance 30.86;
}
object transformer_configuration {
  name XF3_POLETOP_ABCN_300;
  power_rating 300.00;
  powerA_rating 100.00;
  powerB_rating 100.00;
  powerC_rating 100.00;
  install_type POLETOP;
  connect_type WYE_WYE;
  primary_voltage 12470.0;
  secondary_voltage 480.0;
  resistance 0.01300;
  reactance 0.04830;
  shunt_resistance 217.39;
  shunt_reactance 44.44;
}
object transformer_configuration {
  name XF3_POLETOP_ABCN_112p5;
  power_rating 112.50;
  powerA_rating 37.50;
  powerB_rating 37.50;
  powerC_rating 37.50;
  install_type POLETOP;
  connect_type WYE_WYE;
  primary_voltage 12470.0;
  secondary_voltage 480.0;
  resistance 0.01450;
  reactance 0.02850;
  shunt_resistance 169.49;
  shunt_reactance 33.44;
}
object transformer_configuration {
  name XF1_POLETOP_CN_75;
  power_rating 75.00;
  powerA_rating 0.0;
  powerB_rating 0.0;
  powerC_rating 75.00;
  install_type POLETOP;
  connect_type WYE_WYE;
  primary_voltage 12470.0;
  secondary_voltage 208.0;
  resistance 0.01600;
  reactance 0.02420;
  shunt_resistance 158.73;
  shunt_reactance 30.86;
}
object transformer_configuration {
  name XF1_POLETOP_CN_167;
  power_rating 167.00;
  powerA_rating 0.0;
  powerB_rating 0.0;
  powerC_rating 167.00;
  install_type POLETOP;
  connect_type WYE_WYE;
  primary_voltage 12470.0;
  secondary_voltage 480.0;
  resistance 0.01300;
  reactance 0.03520;
  shunt_resistance 200.00;
  shunt_reactance 40.00;
}
object transformer_configuration {
  name XF1_POLETOP_AN_37p5;
  power_rating 37.50;
  powerA_rating 37.50;
  powerB_rating 0.0;
  powerC_rating 0.0;
  install_type POLETOP;
  connect_type WYE_WYE;
  primary_voltage 12470.0;
  secondary_voltage 208.0;
  resistance 0.01750;
  reactance 0.02120;
  shunt_resistance 142.86;
  shunt_reactance 25.38;
}
object transformer_configuration {
  name XF1_POLETOP_BN_15;
  power_rating 15.00;
  powerA_rating 0.0;
  powerB_rating 15.00;
  powerC_rating 0.0;
  install_type POLETOP;
  connect_type WYE_WYE;
  primary_voltage 12470.0;
  secondary_voltage 208.0;
  resistance 0.01900;
  reactance 0.01770;
  shunt_resistance 126.58;
  shunt_reactance 22.57;
}
object transformer_configuration {
  name XF1_PADMOUNT_CN_100;
  power_rating 100.00;
  powerA_rating 0.0;
  powerB_rating 0.0;
  powerC_rating 100.00;
  install_type PADMOUNT;
  connect_type WYE_WYE;
  primary_voltage 12470.0;
  secondary_voltage 208.0;
  resistance 0.01450;
  reactance 0.02850;
  shunt_resistance 169.49;
  shunt_reactance 33.44;
}
object transformer_configuration {
  name XF3_PADMOUNT_ABCN_150;
  power_rating 150.00;
  powerA_rating 50.00;
  powerB_rating 50.00;
  powerC_rating 50.00;
  install_type PADMOUNT;
  connect_type WYE_WYE;
  primary_voltage 12470.0;
  secondary_voltage 480.0;
  resistance 0.01300;
  reactance 0.03250;
  shunt_resistance 185.19;
  shunt_reactance 36.36;
}
object transformer_configuration {
  name XF1_PADMOUNT_CN_5;
  power_rating 5.00;
  powerA_rating 0.0;
  powerB_rating 0.0;
  powerC_rating 5.00;
  install_type PADMOUNT;
  connect_type WYE_WYE;
  primary_voltage 12470.0;
  secondary_voltage 208.0;
  resistance 0.01900;
  reactance 0.01770;
  shunt_resistance 126.58;
  shunt_reactance 22.57;
}
object transformer_configuration {
  name XF1_PADMOUNT_CN_15;
  power_rating 15.00;
  powerA_rating 0.0;
  powerB_rating 0.0;
  powerC_rating 15.00;
  install_type PADMOUNT;
  connect_type WYE_WYE;
  primary_voltage 12470.0;
  secondary_voltage 208.0;
  resistance 0.01900;
  reactance 0.01770;
  shunt_resistance 126.58;
  shunt_reactance 22.57;
}
object regulator_configuration {
  name feeder_reg_cfg;
  Control OUTPUT_VOLTAGE;
  band_center 7500.0;
  band_width 60.0;
  connect_type WYE_WYE;
  time_delay 30;
  raise_taps 16;
  lower_taps 16;
  regulation 0.10;
  tap_pos_A 0;
  tap_pos_B 0;
  tap_pos_C 0;
}
object overhead_line_conductor {
  name ID_1920;
  rating.summer.continuous 878.0;
  geometric_mean_radius 0.03280 ft;
  resistance 0.13100;
}
object overhead_line_conductor {
  name ID_1921;
  rating.summer.continuous 149.0;
  geometric_mean_radius 0.00663 ft;
  resistance 1.50000;
}
object overhead_line_conductor {
  name ID_1922;
  rating.summer.continuous 533.0;
  geometric_mean_radius 0.02280 ft;
  resistance 0.25800;
}
object overhead_line_conductor {
  name ID_1923;
  rating.summer.continuous 256.0;
  geometric_mean_radius 0.01200 ft;
  resistance 0.16600;
}
object overhead_line_conductor {
  name ID_1924;
  rating.summer.continuous 197.0;
  geometric_mean_radius 0.00883 ft;
  resistance 1.51970;
}
object overhead_line_conductor {
  name ID_1925;
  rating.summer.continuous 180.0;
  geometric_mean_radius 0.00418 ft;
  resistance 1.62570;
}
object overhead_line_conductor {
  name ID_1926;
  rating.summer.continuous 891.0;
  geometric_mean_radius 0.03550 ft;
  resistance 0.14420;
}
object overhead_line_conductor {
  name ID_1927;
  rating.summer.continuous 354.0;
  geometric_mean_radius 0.01520 ft;
  resistance 0.10500;
}
object line_spacing {
  name ID_195;
  distance_CN 36.0 in;
}
object line_spacing {
  name ID_196;
  distance_AB 48.0 in;
  distance_BC 48.0 in;
  distance_AC 48.0 in;
  distance_AN 36.0 in;
  distance_BN 36.0 in;
  distance_CN 36.0 in;
}
object line_spacing {
  name ID_197;
  distance_BN 36.0 in;
}
object line_spacing {
  name ID_198;
  distance_AN 36.0 in;
}
object line_spacing {
  name ID_199;
  distance_AC 48.0 in;
  distance_AN 36.0 in;
  distance_CN 36.0 in;
}
object line_spacing {
  name ID_200;
  distance_BC 48.0 in;
  distance_BN 36.0 in;
  distance_CN 36.0 in;
}
object line_configuration {
  name ID_154;
  conductor_C ID_4178;
  conductor_N ID_4178;
  spacing ID_195;
}
object line_configuration {
  name ID_155;
  conductor_A ID_1920;
  conductor_B ID_1920;
  conductor_C ID_1920;
  conductor_N ID_1920;
  spacing ID_196;
}
object line_configuration {
  name ID_156;
  conductor_B ID_1921;
  conductor_N ID_1921;
  spacing ID_197;
}
object line_configuration {
  name ID_157;
  conductor_A ID_4178;
  conductor_N ID_4178;
  spacing ID_198;
}
object line_configuration {
  name ID_158;
  conductor_A ID_1922;
  conductor_B ID_1922;
  conductor_C ID_1922;
  conductor_N ID_1922;
  spacing ID_196;
}
object line_configuration {
  name ID_159;
  conductor_A ID_1923;
  conductor_B ID_1923;
  conductor_C ID_1923;
  conductor_N ID_1923;
  spacing ID_196;
}
object line_configuration {
  name ID_160;
  conductor_B ID_1923;
  conductor_N ID_1923;
  spacing ID_197;
}
object line_configuration {
  name ID_161;
  conductor_C ID_1923;
  conductor_N ID_1923;
  spacing ID_195;
}
object line_configuration {
  name ID_162;
  conductor_C ID_1921;
  conductor_N ID_1921;
  spacing ID_195;
}
object line_configuration {
  name ID_163;
  conductor_C ID_1921;
  conductor_N ID_1921;
  spacing ID_195;
}
object line_configuration {
  name ID_164;
  conductor_C ID_4179;
  conductor_N ID_4179;
  spacing ID_195;
}
object line_configuration {
  name ID_165;
  conductor_B ID_4178;
  conductor_N ID_4178;
  spacing ID_197;
}
object line_configuration {
  name ID_166;
  conductor_B ID_4179;
  conductor_N ID_4179;
  spacing ID_197;
}
object line_configuration {
  name ID_167;
  conductor_A ID_1924;
  conductor_N ID_1924;
  spacing ID_198;
}
object line_configuration {
  name ID_168;
  conductor_A ID_1923;
  conductor_N ID_1923;
  spacing ID_198;
}
object line_configuration {
  name ID_169;
  conductor_B ID_1924;
  conductor_N ID_1924;
  spacing ID_197;
}
object line_configuration {
  name ID_170;
  conductor_A ID_1921;
  conductor_N ID_1921;
  spacing ID_198;
}
object line_configuration {
  name ID_171;
  conductor_A ID_1921;
  conductor_N ID_1921;
  spacing ID_198;
}
object line_configuration {
  name ID_172;
  conductor_A ID_1921;
  conductor_C ID_1921;
  conductor_N ID_1921;
  spacing ID_199;
}
object line_configuration {
  name ID_173;
  conductor_A ID_1925;
  conductor_B ID_1925;
  conductor_C ID_1925;
  conductor_N ID_1925;
  spacing ID_196;
}
object line_configuration {
  name ID_174;
  conductor_A ID_1921;
  conductor_B ID_1921;
  conductor_C ID_1921;
  conductor_N ID_1921;
  spacing ID_196;
}
object line_configuration {
  name ID_175;
  conductor_A ID_1925;
  conductor_C ID_1925;
  conductor_N ID_1925;
  spacing ID_199;
}
object line_configuration {
  name ID_176;
  conductor_A ID_1921;
  conductor_C ID_1921;
  conductor_N ID_1921;
  spacing ID_199;
}
object line_configuration {
  name ID_177;
  conductor_C ID_1925;
  conductor_N ID_1925;
  spacing ID_195;
}
object line_configuration {
  name ID_178;
  conductor_A ID_1925;
  conductor_N ID_1925;
  spacing ID_198;
}
object line_configuration {
  name ID_179;
  conductor_A ID_1923;
  conductor_C ID_1923;
  conductor_N ID_1923;
  spacing ID_199;
}
object line_configuration {
  name ID_180;
  conductor_B ID_1925;
  conductor_N ID_1925;
  spacing ID_197;
}
object line_configuration {
  name ID_181;
  conductor_B ID_1921;
  conductor_N ID_1921;
  spacing ID_197;
}
object line_configuration {
  name ID_182;
  conductor_A ID_4180;
  conductor_B ID_4180;
  conductor_C ID_4180;
  conductor_N ID_4180;
  spacing ID_196;
}
object line_configuration {
  name ID_183;
  conductor_A ID_4178;
  conductor_B ID_4178;
  conductor_C ID_4178;
  conductor_N ID_4178;
  spacing ID_196;
}
object line_configuration {
  name ID_184;
  conductor_B ID_1926;
  conductor_N ID_1926;
  spacing ID_197;
}
object line_configuration {
  name ID_185;
  conductor_A ID_1926;
  conductor_N ID_1926;
  spacing ID_198;
}
object line_configuration {
  name ID_186;
  conductor_A ID_1926;
  conductor_B ID_1926;
  conductor_C ID_1926;
  conductor_N ID_1926;
  spacing ID_196;
}
object line_configuration {
  name ID_187;
  conductor_C ID_1926;
  conductor_N ID_1926;
  spacing ID_195;
}
object line_configuration {
  name ID_188;
  conductor_A ID_4179;
  conductor_B ID_4179;
  conductor_C ID_4179;
  conductor_N ID_4179;
  spacing ID_196;
}
object line_configuration {
  name ID_189;
  conductor_A ID_1924;
  conductor_B ID_1924;
  conductor_C ID_1924;
  conductor_N ID_1924;
  spacing ID_196;
}
object line_configuration {
  name ID_190;
  conductor_C ID_1924;
  conductor_N ID_1924;
  spacing ID_195;
}
object line_configuration {
  name ID_191;
  conductor_A ID_1924;
  conductor_C ID_1924;
  conductor_N ID_1924;
  spacing ID_199;
}
object line_configuration {
  name ID_192;
  conductor_A ID_1921;
  conductor_B ID_1921;
  conductor_C ID_1921;
  conductor_N ID_1921;
  spacing ID_196;
}
object line_configuration {
  name ID_193;
  conductor_B ID_1921;
  conductor_C ID_1921;
  conductor_N ID_1921;
  spacing ID_200;
}
object line_configuration {
  name ID_194;
  conductor_B ID_1923;
  conductor_C ID_1923;
  conductor_N ID_1923;
  spacing ID_200;
}
object triplex_line_conductor {
  name triplex_4/0 AA;
  resistance 0.48;
  geometric_mean_radius 0.0158;
  rating.summer.continuous 1000.0;
  rating.summer.emergency 1000.0;
  rating.winter.continuous 1000.0;
  rating.winter.emergency 1000.0;
}
object triplex_line_configuration {
  name ID_2416;
  conductor_1 triplex_4/0 AA;
  conductor_2 triplex_4/0 AA;
  conductor_N triplex_4/0 AA;
  insulation_thickness 0.08;
  diameter 0.522;
}
object underground_line_conductor {
  name ID_4178;
  rating.summer.continuous 112.0;
  outer_diameter 1.09;
  conductor_gmr 0.0088 ft;
  conductor_diameter 0.292;
  conductor_resistance 1.38336;
  neutral_gmr 0.00208 ft;
  neutral_resistance 14.87;
  neutral_diameter 0.0641;
  neutral_strands 6.0;
  insulation_relative_permitivitty 2.3;
}
object underground_line_conductor {
  name ID_4179;
  rating.summer.continuous 214.0;
  outer_diameter 1.32;
  conductor_gmr 0.0177 ft;
  conductor_diameter 0.528;
  conductor_resistance 0.433488;
  neutral_gmr 0.00208 ft;
  neutral_resistance 14.87;
  neutral_diameter 0.0641;
  neutral_strands 11.0;
  insulation_relative_permitivitty 2.3;
}
object underground_line_conductor {
  name ID_4180;
  rating.summer.continuous 564.0;
  outer_diameter 2.291;
  conductor_gmr 0.03592 ft;
  conductor_diameter 1.117;
  conductor_resistance 0.093456;
  neutral_gmr 0.00330 ft;
  neutral_resistance 5.9026;
  neutral_diameter 0.1019;
  neutral_strands 20.0;
  insulation_relative_permitivitty 2.3;
}
object fuse {
  name R5-12-47-5_fuse_1;
// downstream 43.89 kva on CS
  phases CN;
  from R5-12-47-5_node_166;
  to R5-12-47-5_node_170;
  current_limit 40;
  status CLOSED;
  mean_replacement_time 3600;
}
object fuse {
  name R5-12-47-5_fuse_2;
// downstream 10.22 kva on AS
  phases AN;
  from R5-12-47-5_node_200;
  to R5-12-47-5_node_211;
  current_limit 40;
  status CLOSED;
  mean_replacement_time 3600;
}
object fuse {
  name R5-12-47-5_fuse_3;
// downstream 9.79 kva on AS
  phases AN;
  from R5-12-47-5_node_201;
  to R5-12-47-5_node_209;
  current_limit 40;
  status CLOSED;
  mean_replacement_time 3600;
}
object fuse {
  name R5-12-47-5_fuse_4;
// downstream 32.67 kva on AS
  phases AN;
  from R5-12-47-5_node_84;
  to R5-12-47-5_node_87;
  current_limit 40;
  status CLOSED;
  mean_replacement_time 3600;
}
object fuse {
  name R5-12-47-5_fuse_5;
// downstream 14.78 kva on AS
  phases AN;
  from R5-12-47-5_node_193;
  to R5-12-47-5_node_195;
  current_limit 40;
  status CLOSED;
  mean_replacement_time 3600;
}
object fuse {
  name R5-12-47-5_fuse_6;
// downstream 7.24 kva on AS
  phases AN;
  from R5-12-47-5_node_192;
  to R5-12-47-5_node_188;
  current_limit 40;
  status CLOSED;
  mean_replacement_time 3600;
}
object fuse {
  name R5-12-47-5_fuse_7;
// downstream 9.93 kva on AS
  phases AN;
  from R5-12-47-5_node_74;
  to R5-12-47-5_node_69;
  current_limit 40;
  status CLOSED;
  mean_replacement_time 3600;
}
object fuse {
  name R5-12-47-5_fuse_8;
// downstream 10.37 kva on AS
  phases AN;
  from R5-12-47-5_node_74;
  to R5-12-47-5_node_78;
  current_limit 40;
  status CLOSED;
  mean_replacement_time 3600;
}
object fuse {
  name R5-12-47-5_fuse_9;
// downstream 19.92 kva on CS
  phases CN;
  from R5-12-47-5_node_561;
  to R5-12-47-5_node_562;
  current_limit 40;
  status CLOSED;
  mean_replacement_time 3600;
}
object fuse {
  name R5-12-47-5_fuse_10;
// downstream 129.02 kva on ABCS
  phases ABCN;
  from R5-12-47-5_node_690;
  to R5-12-47-5_node_692;
  current_limit 40;
  status CLOSED;
  mean_replacement_time 3600;
}
object fuse {
  name R5-12-47-5_fuse_11;
// downstream 29.24 kva on AS
  phases AN;
  from R5-12-47-5_node_496;
  to R5-12-47-5_node_497;
  current_limit 40;
  status CLOSED;
  mean_replacement_time 3600;
}
object fuse {
  name R5-12-47-5_fuse_12;
// downstream 12.90 kva on AS
  phases AN;
  from R5-12-47-5_node_72;
  to R5-12-47-5_node_68;
  current_limit 40;
  status CLOSED;
  mean_replacement_time 3600;
}
object fuse {
  name R5-12-47-5_fuse_13;
// downstream 20.73 kva on BS
  phases BN;
  from R5-12-47-5_node_393;
  to R5-12-47-5_node_394;
  current_limit 40;
  status CLOSED;
  mean_replacement_time 3600;
}
object fuse {
  name R5-12-47-5_fuse_14;
// downstream 20.73 kva on BS
  phases BN;
  from R5-12-47-5_node_402;
  to R5-12-47-5_node_404;
  current_limit 40;
  status CLOSED;
  mean_replacement_time 3600;
}
object fuse {
  name R5-12-47-5_fuse_15;
// downstream 114.81 kva on AS
  phases AN;
  from R5-12-47-5_node_502;
  to R5-12-47-5_node_503;
  current_limit 40;
  status CLOSED;
  mean_replacement_time 3600;
}
object fuse {
  name R5-12-47-5_fuse_16;
// downstream 640.15 kva on ABCS
  phases ABCN;
  from R5-12-47-5_node_490;
  to R5-12-47-5_node_495;
  current_limit 100;
  status CLOSED;
  mean_replacement_time 3600;
}
object fuse {
  name R5-12-47-5_fuse_17;
// downstream 132.20 kva on BS
  phases BN;
  from R5-12-47-5_node_248;
  to R5-12-47-5_node_258;
  current_limit 65;
  status CLOSED;
  mean_replacement_time 3600;
}
object fuse {
  name R5-12-47-5_fuse_18;
// downstream 99.26 kva on BS
  phases BN;
  from R5-12-47-5_node_248;
  to R5-12-47-5_node_242;
  current_limit 40;
  status CLOSED;
  mean_replacement_time 3600;
}
object fuse {
  name R5-12-47-5_fuse_19;
// downstream 82.79 kva on AS
  phases AN;
  from R5-12-47-5_node_250;
  to R5-12-47-5_node_249;
  current_limit 40;
  status CLOSED;
  mean_replacement_time 3600;
}
object fuse {
  name R5-12-47-5_fuse_20;
// downstream 57.61 kva on AS
  phases AN;
  from R5-12-47-5_node_255;
  to R5-12-47-5_node_254;
  current_limit 40;
  status CLOSED;
  mean_replacement_time 3600;
}
object fuse {
  name R5-12-47-5_fuse_21;
// downstream 58.23 kva on BS
  phases BN;
  from R5-12-47-5_node_134;
  to R5-12-47-5_node_138;
  current_limit 40;
  status CLOSED;
  mean_replacement_time 3600;
}
object fuse {
  name R5-12-47-5_fuse_22;
// downstream 36.72 kva on BS
  phases BN;
  from R5-12-47-5_node_133;
  to R5-12-47-5_node_137;
  current_limit 40;
  status CLOSED;
  mean_replacement_time 3600;
}
object fuse {
  name R5-12-47-5_fuse_23;
// downstream 47.46 kva on CS
  phases CN;
  from R5-12-47-5_node_130;
  to R5-12-47-5_node_136;
  current_limit 40;
  status CLOSED;
  mean_replacement_time 3600;
}
object fuse {
  name R5-12-47-5_fuse_24;
// downstream 89.87 kva on AS
  phases AN;
  from R5-12-47-5_node_101;
  to R5-12-47-5_node_99;
  current_limit 40;
  status CLOSED;
  mean_replacement_time 3600;
}
object fuse {
  name R5-12-47-5_fuse_25;
// downstream 115.89 kva on AS
  phases AN;
  from R5-12-47-5_node_101;
  to R5-12-47-5_node_100;
  current_limit 65;
  status CLOSED;
  mean_replacement_time 3600;
}
object fuse {
  name R5-12-47-5_fuse_26;
// downstream 26.93 kva on AS
  phases AN;
  from R5-12-47-5_node_187;
  to R5-12-47-5_node_184;
  current_limit 40;
  status CLOSED;
  mean_replacement_time 3600;
}
object fuse {
  name R5-12-47-5_fuse_27;
// downstream 98.59 kva on ABCS
  phases ABCN;
  from R5-12-47-5_node_959;
  to R5-12-47-5_node_958;
  current_limit 40;
  status CLOSED;
  mean_replacement_time 3600;
}
object fuse {
  name R5-12-47-5_fuse_28;
// downstream 1961.42 kva on ABCS
  phases ABCN;
  from R5-12-47-5_node_959;
  to R5-12-47-5_node_960;
  current_limit 280;
  status CLOSED;
  mean_replacement_time 3600;
}
object fuse {
  name R5-12-47-5_fuse_29;
// downstream 1122.49 kva on ABC
  phases ABCN;
  from R5-12-47-5_node_862;
  to R5-12-47-5_node_863;
  current_limit 200;
  status CLOSED;
  mean_replacement_time 3600;
}
object fuse {
  name R5-12-47-5_fuse_30;
// downstream 109.67 kva on ABCS
  phases ABCN;
  from R5-12-47-5_node_941;
  to R5-12-47-5_node_940;
  current_limit 40;
  status CLOSED;
  mean_replacement_time 3600;
}
object fuse {
  name R5-12-47-5_fuse_31;
// downstream 126.04 kva on ABCS
  phases ABCN;
  from R5-12-47-5_node_934;
  to R5-12-47-5_node_935;
  current_limit 40;
  status CLOSED;
  mean_replacement_time 3600;
}
object fuse {
  name R5-12-47-5_fuse_32;
// downstream 656.72 kva on ABC
  phases ABCN;
  from R5-12-47-5_node_910;
  to R5-12-47-5_node_911;
  current_limit 100;
  status CLOSED;
  mean_replacement_time 3600;
}
object fuse {
  name R5-12-47-5_fuse_33;
// downstream 17.23 kva on BS
  phases BN;
  from R5-12-47-5_node_670;
  to R5-12-47-5_node_669;
  current_limit 40;
  status CLOSED;
  mean_replacement_time 3600;
}
object fuse {
  name R5-12-47-5_fuse_34;
// downstream 14.65 kva on BS
  phases BN;
  from R5-12-47-5_node_685;
  to R5-12-47-5_node_686;
  current_limit 40;
  status CLOSED;
  mean_replacement_time 3600;
}
object fuse {
  name R5-12-47-5_fuse_35;
// downstream 142.66 kva on ABC
  phases ABCN;
  from R5-12-47-5_node_879;
  to R5-12-47-5_node_877;
  current_limit 40;
  status CLOSED;
  mean_replacement_time 3600;
}
object fuse {
  name R5-12-47-5_fuse_36;
// downstream 35.36 kva on CS
  phases CN;
  from R5-12-47-5_node_320;
  to R5-12-47-5_node_321;
  current_limit 40;
  status CLOSED;
  mean_replacement_time 3600;
}
object fuse {
  name R5-12-47-5_fuse_37;
// downstream 92.85 kva on CS
  phases CN;
  from R5-12-47-5_node_481;
  to R5-12-47-5_node_485;
  current_limit 40;
  status CLOSED;
  mean_replacement_time 3600;
}
object fuse {
  name R5-12-47-5_fuse_38;
  phases CN;
  from R5-12-47-5_node_289;
  to R5-12-47-5_node_288;
  current_limit 50000;
  status CLOSED;
  mean_replacement_time 3600;
}
object fuse {
  name R5-12-47-5_fuse_39;
// downstream 15.82 kva on CS
  phases CN;
  from R5-12-47-5_node_335;
  to R5-12-47-5_node_332;
  current_limit 40;
  status CLOSED;
  mean_replacement_time 3600;
}
object fuse {
  name R5-12-47-5_fuse_40;
// downstream 55.88 kva on BCS
  phases ABCN;
  from R5-12-47-5_node_521;
  to R5-12-47-5_node_335;
  current_limit 40;
  status CLOSED;
  mean_replacement_time 3600;
}
object fuse {
  name R5-12-47-5_fuse_41;
  phases AN;
  from R5-12-47-5_node_335;
  to R5-12-47-5_node_340;
  current_limit 50000;
  status CLOSED;
  mean_replacement_time 3600;
}
object fuse {
  name R5-12-47-5_fuse_42;
// downstream 34.78 kva on CS
  phases CN;
  from R5-12-47-5_node_335;
  to R5-12-47-5_node_339;
  current_limit 40;
  status CLOSED;
  mean_replacement_time 3600;
}
object fuse {
  name R5-12-47-5_fuse_43;
// downstream 12.40 kva on CS
  phases CN;
  from R5-12-47-5_node_168;
  to R5-12-47-5_node_167;
  current_limit 40;
  status CLOSED;
  mean_replacement_time 3600;
}
object fuse {
  name R5-12-47-5_fuse_44;
// downstream 27.57 kva on CS
  phases CN;
  from R5-12-47-5_node_171;
  to R5-12-47-5_node_172;
  current_limit 40;
  status CLOSED;
  mean_replacement_time 3600;
}
object fuse {
  name R5-12-47-5_fuse_45;
// downstream 162.25 kva on CS
  phases CN;
  from R5-12-47-5_node_1010;
  to R5-12-47-5_node_1009;
  current_limit 65;
  status CLOSED;
  mean_replacement_time 3600;
}
object fuse {
  name R5-12-47-5_fuse_46;
// downstream 89.31 kva on ABCS
  phases ABCN;
  from R5-12-47-5_node_1004;
  to R5-12-47-5_node_1005;
  current_limit 40;
  status CLOSED;
  mean_replacement_time 3600;
}
object fuse {
  name R5-12-47-5_fuse_47;
// downstream 31.02 kva on CS
  phases CN;
  from R5-12-47-5_node_551;
  to R5-12-47-5_node_555;
  current_limit 40;
  status CLOSED;
  mean_replacement_time 3600;
}
object fuse {
  name R5-12-47-5_fuse_48;
  phases BN;
  from R5-12-47-5_node_972;
  to R5-12-47-5_node_973;
  current_limit 50000;
  status CLOSED;
  mean_replacement_time 3600;
}
object fuse {
  name R5-12-47-5_fuse_49;
// downstream 105.93 kva on AS
  phases AN;
  from R5-12-47-5_node_972;
  to R5-12-47-5_node_974;
  current_limit 40;
  status CLOSED;
  mean_replacement_time 3600;
}
object fuse {
  name R5-12-47-5_fuse_50;
// downstream 76.85 kva on CS
  phases CN;
  from R5-12-47-5_node_972;
  to R5-12-47-5_node_970;
  current_limit 40;
  status CLOSED;
  mean_replacement_time 3600;
}
object fuse {
  name R5-12-47-5_fuse_51;
  phases BN;
  from R5-12-47-5_node_965;
  to R5-12-47-5_node_966;
  current_limit 50000;
  status CLOSED;
  mean_replacement_time 3600;
}
object fuse {
  name R5-12-47-5_fuse_52;
// downstream 119.55 kva on CS
  phases CN;
  from R5-12-47-5_node_965;
  to R5-12-47-5_node_969;
  current_limit 65;
  status CLOSED;
  mean_replacement_time 3600;
}
object fuse {
  name R5-12-47-5_fuse_53;
  phases AN;
  from R5-12-47-5_node_965;
  to R5-12-47-5_node_963;
  current_limit 50000;
  status CLOSED;
  mean_replacement_time 3600;
}
object fuse {
  name R5-12-47-5_fuse_54;
// downstream 109.23 kva on ABCS
  phases ABCN;
  from R5-12-47-5_node_955;
  to R5-12-47-5_node_956;
  current_limit 40;
  status CLOSED;
  mean_replacement_time 3600;
}
object fuse {
  name R5-12-47-5_fuse_55;
// downstream 112.45 kva on BS
  phases BN;
  from R5-12-47-5_node_950;
  to R5-12-47-5_node_951;
  current_limit 40;
  status CLOSED;
  mean_replacement_time 3600;
}
object fuse {
  name R5-12-47-5_fuse_56;
  phases CN;
  from R5-12-47-5_node_950;
  to R5-12-47-5_node_953;
  current_limit 50000;
  status CLOSED;
  mean_replacement_time 3600;
}
object fuse {
  name R5-12-47-5_fuse_57;
// downstream 37.00 kva on AS
  phases AN;
  from R5-12-47-5_node_950;
  to R5-12-47-5_node_948;
  current_limit 40;
  status CLOSED;
  mean_replacement_time 3600;
}
object fuse {
  name R5-12-47-5_fuse_58;
// downstream 10.52 kva on CS
  phases CN;
  from R5-12-47-5_node_761;
  to R5-12-47-5_node_757;
  current_limit 40;
  status CLOSED;
  mean_replacement_time 3600;
}
object fuse {
  name R5-12-47-5_fuse_59;
// downstream 12.58 kva on BS
  phases BN;
  from R5-12-47-5_node_761;
  to R5-12-47-5_node_758;
  current_limit 40;
  status CLOSED;
  mean_replacement_time 3600;
}
object fuse {
  name R5-12-47-5_fuse_60;
// downstream 40.27 kva on BS
  phases BN;
  from R5-12-47-5_node_393;
  to R5-12-47-5_node_391;
  current_limit 40;
  status CLOSED;
  mean_replacement_time 3600;
}
object fuse {
  name R5-12-47-5_fuse_61;
  phases AN;
  from R5-12-47-5_node_761;
  to R5-12-47-5_node_760;
  current_limit 50000;
  status CLOSED;
  mean_replacement_time 3600;
}
object fuse {
  name R5-12-47-5_fuse_62;
// downstream 80.93 kva on ABCS
  phases ABCN;
  from R5-12-47-5_node_756;
  to R5-12-47-5_node_755;
  current_limit 40;
  status CLOSED;
  mean_replacement_time 3600;
}
object fuse {
  name R5-12-47-5_fuse_63;
  phases AN;
  from R5-12-47-5_node_752;
  to R5-12-47-5_node_754;
  current_limit 50000;
  status CLOSED;
  mean_replacement_time 3600;
}
object fuse {
  name R5-12-47-5_fuse_64;
  phases BN;
  from R5-12-47-5_node_752;
  to R5-12-47-5_node_753;
  current_limit 50000;
  status CLOSED;
  mean_replacement_time 3600;
}
object fuse {
  name R5-12-47-5_fuse_65;
// downstream 5.64 kva on CS
  phases CN;
  from R5-12-47-5_node_752;
  to R5-12-47-5_node_748;
  current_limit 40;
  status CLOSED;
  mean_replacement_time 3600;
}
object fuse {
  name R5-12-47-5_fuse_66;
// downstream 126.04 kva on ABCS
  phases ABCN;
  from R5-12-47-5_node_743;
  to R5-12-47-5_node_742;
  current_limit 40;
  status CLOSED;
  mean_replacement_time 3600;
}
object fuse {
  name R5-12-47-5_fuse_67;
// downstream 48.16 kva on C
  phases CN;
  from R5-12-47-5_node_730;
  to R5-12-47-5_node_732;
  current_limit 40;
  status CLOSED;
  mean_replacement_time 3600;
}
object fuse {
  name R5-12-47-5_fuse_68;
// downstream 99.38 kva on ABC
  phases ABCN;
  from R5-12-47-5_node_729;
  to R5-12-47-5_node_728;
  current_limit 40;
  status CLOSED;
  mean_replacement_time 3600;
}
object fuse {
  name R5-12-47-5_fuse_69;
  phases ABCN;
  from R5-12-47-5_node_724;
  to R5-12-47-5_node_722;
  current_limit 50000;
  status CLOSED;
  mean_replacement_time 3600;
}
object fuse {
  name R5-12-47-5_fuse_70;
// downstream 351.79 kva on ABC
  phases ABCN;
  from R5-12-47-5_node_720;
  to R5-12-47-5_node_719;
  current_limit 65;
  status CLOSED;
  mean_replacement_time 3600;
}
object fuse {
  name R5-12-47-5_fuse_71;
  phases AN;
  from R5-12-47-5_node_526;
  to R5-12-47-5_node_529;
  current_limit 50000;
  status CLOSED;
  mean_replacement_time 3600;
}
object fuse {
  name R5-12-47-5_fuse_72;
// downstream 118.10 kva on BS
  phases BN;
  from R5-12-47-5_node_526;
  to R5-12-47-5_node_528;
  current_limit 65;
  status CLOSED;
  mean_replacement_time 3600;
}
object fuse {
  name R5-12-47-5_fuse_73;
// downstream 152.14 kva on CS
  phases CN;
  from R5-12-47-5_node_526;
  to R5-12-47-5_node_527;
  current_limit 65;
  status CLOSED;
  mean_replacement_time 3600;
}
object fuse {
  name R5-12-47-5_fuse_74;
// downstream 128.59 kva on AS
  phases AN;
  from R5-12-47-5_node_521;
  to R5-12-47-5_node_522;
  current_limit 65;
  status CLOSED;
  mean_replacement_time 3600;
}
object fuse {
  name R5-12-47-5_fuse_75;
// downstream 120.48 kva on BS
  phases BN;
  from R5-12-47-5_node_521;
  to R5-12-47-5_node_524;
  current_limit 65;
  status CLOSED;
  mean_replacement_time 3600;
}
object fuse {
  name R5-12-47-5_fuse_76;
// downstream 64.97 kva on CS
  phases CN;
  from R5-12-47-5_node_521;
  to R5-12-47-5_node_525;
  current_limit 40;
  status CLOSED;
  mean_replacement_time 3600;
}
object fuse {
  name R5-12-47-5_fuse_77;
// downstream 97.84 kva on ABC
  phases ABCN;
  from R5-12-47-5_node_908;
  to R5-12-47-5_node_912;
  current_limit 40;
  status CLOSED;
  mean_replacement_time 3600;
}
object fuse {
  name R5-12-47-5_fuse_78;
// downstream 59.55 kva on ABC
  phases ABCN;
  from R5-12-47-5_node_906;
  to R5-12-47-5_node_904;
  current_limit 40;
  status CLOSED;
  mean_replacement_time 3600;
}
object fuse {
  name R5-12-47-5_fuse_79;
// downstream 12.36 kva on BS
  phases BN;
  from R5-12-47-5_node_896;
  to R5-12-47-5_node_895;
  current_limit 40;
  status CLOSED;
  mean_replacement_time 3600;
}
object fuse {
  name R5-12-47-5_fuse_80;
  phases ABCN;
  from R5-12-47-5_node_891;
  to R5-12-47-5_node_890;
  current_limit 50000;
  status CLOSED;
  mean_replacement_time 3600;
}
object fuse {
  name R5-12-47-5_fuse_81;
// downstream 62.26 kva on AS
  phases AN;
  from R5-12-47-5_node_870;
  to R5-12-47-5_node_872;
  current_limit 40;
  status CLOSED;
  mean_replacement_time 3600;
}
object fuse {
  name R5-12-47-5_fuse_82;
// downstream 109.27 kva on BS
  phases BN;
  from R5-12-47-5_node_870;
  to R5-12-47-5_node_871;
  current_limit 40;
  status CLOSED;
  mean_replacement_time 3600;
}
object fuse {
  name R5-12-47-5_fuse_83;
// downstream 154.83 kva on CS
  phases CN;
  from R5-12-47-5_node_870;
  to R5-12-47-5_node_867;
  current_limit 65;
  status CLOSED;
  mean_replacement_time 3600;
}
object fuse {
  name R5-12-47-5_fuse_84;
// downstream 614.79 kva on ABCS
  phases ABCN;
  from R5-12-47-5_node_864;
  to R5-12-47-5_node_865;
  current_limit 100;
  status CLOSED;
  mean_replacement_time 3600;
}
object fuse {
  name R5-12-47-5_fuse_85;
// downstream 446.90 kva on ABCS
  phases ABCN;
  from R5-12-47-5_node_859;
  to R5-12-47-5_node_858;
  current_limit 65;
  status CLOSED;
  mean_replacement_time 3600;
}
object fuse {
  name R5-12-47-5_fuse_86;
  phases ABCN;
  from R5-12-47-5_node_853;
  to R5-12-47-5_node_855;
  current_limit 50000;
  status CLOSED;
  mean_replacement_time 3600;
}
object fuse {
  name R5-12-47-5_fuse_87;
// downstream 73.79 kva on AS
  phases AN;
  from R5-12-47-5_node_990;
  to R5-12-47-5_node_991;
  current_limit 40;
  status CLOSED;
  mean_replacement_time 3600;
}
object fuse {
  name R5-12-47-5_fuse_88;
// downstream 71.79 kva on AS
  phases AN;
  from R5-12-47-5_node_995;
  to R5-12-47-5_node_994;
  current_limit 40;
  status CLOSED;
  mean_replacement_time 3600;
}
object fuse {
  name R5-12-47-5_fuse_89;
// downstream 168.44 kva on AS
  phases AN;
  from R5-12-47-5_node_199;
  to R5-12-47-5_node_197;
  current_limit 65;
  status CLOSED;
  mean_replacement_time 3600;
}
object fuse {
  name R5-12-47-5_fuse_90;
// downstream 43.34 kva on ABC
  phases ABCN;
  from R5-12-47-5_node_649;
  to R5-12-47-5_node_644;
  current_limit 40;
  status CLOSED;
  mean_replacement_time 3600;
}
object fuse {
  name R5-12-47-5_fuse_91;
// downstream 31.45 kva on CS
  phases CN;
  from R5-12-47-5_node_10;
  to R5-12-47-5_node_9;
  current_limit 40;
  status CLOSED;
  mean_replacement_time 3600;
}
object fuse {
  name R5-12-47-5_fuse_92;
// downstream 3597.11 kva on ABCS
  phases ABCN;
  from R5-12-47-5_node_713;
  to R5-12-47-5_node_646;
  current_limit 560;
  status CLOSED;
  mean_replacement_time 3600;
}
object fuse {
  name R5-12-47-5_fuse_93;
// downstream 232.72 kva on C
  phases CN;
  from R5-12-47-5_node_712;
  to R5-12-47-5_node_18;
  current_limit 100;
  status CLOSED;
  mean_replacement_time 3600;
}
object fuse {
  name R5-12-47-5_fuse_94;
// downstream 7.82 kva on CS
  phases CN;
  from R5-12-47-5_node_164;
  to R5-12-47-5_node_44;
  current_limit 40;
  status CLOSED;
  mean_replacement_time 3600;
}
object fuse {
  name R5-12-47-5_fuse_95;
// downstream 26.44 kva on ABC
  phases ABCN;
  from R5-12-47-5_node_839;
  to R5-12-47-5_node_840;
  current_limit 40;
  status CLOSED;
  mean_replacement_time 3600;
}
object fuse {
  name R5-12-47-5_fuse_96;
// downstream 98.45 kva on ABCS
  phases ABCN;
  from R5-12-47-5_node_40;
  to R5-12-47-5_node_25;
  current_limit 40;
  status CLOSED;
  mean_replacement_time 3600;
}
object fuse {
  name R5-12-47-5_fuse_97;
  phases CN;
  from R5-12-47-5_node_896;
  to R5-12-47-5_node_893;
  current_limit 50000;
  status CLOSED;
  mean_replacement_time 3600;
}
object fuse {
  name R5-12-47-5_fuse_98;
  phases AN;
  from R5-12-47-5_node_896;
  to R5-12-47-5_node_897;
  current_limit 50000;
  status CLOSED;
  mean_replacement_time 3600;
}
object fuse {
  name R5-12-47-5_fuse_99;
// downstream 192.52 kva on BS
  phases BN;
  from R5-12-47-5_node_997;
  to R5-12-47-5_node_798;
  current_limit 100;
  status CLOSED;
  mean_replacement_time 3600;
}
object fuse {
  name R5-12-47-5_fuse_100;
// downstream 17.92 kva on CS
  phases CN;
  from R5-12-47-5_node_990;
  to R5-12-47-5_node_992;
  current_limit 40;
  status CLOSED;
  mean_replacement_time 3600;
}
object fuse {
  name R5-12-47-5_fuse_101;
  phases CN;
  from R5-12-47-5_node_345;
  to R5-12-47-5_node_346;
  current_limit 50000;
  status CLOSED;
  mean_replacement_time 3600;
}
object fuse {
  name R5-12-47-5_fuse_102;
// downstream 11.00 kva on CS
  phases CN;
  from R5-12-47-5_node_43;
  to R5-12-47-5_node_157;
  current_limit 40;
  status CLOSED;
  mean_replacement_time 3600;
}
object fuse {
  name R5-12-47-5_fuse_103;
  phases CN;
  from R5-12-47-5_node_156;
  to R5-12-47-5_node_1099;
  current_limit 50000;
  status CLOSED;
  mean_replacement_time 3600;
}
object fuse {
  name R5-12-47-5_fuse_104;
// downstream 4098.98 kva on ABCS
  phases ABCN;
  from R5-12-47-5_node_874;
  to R5-12-47-5_node_878;
  current_limit 560;
  status CLOSED;
  mean_replacement_time 3600;
}
object fuse {
  name R5-12-47-5_fuse_105;
// downstream 117.84 kva on ABC
  phases ABCN;
  from R5-12-47-5_node_843;
  to R5-12-47-5_node_844;
  current_limit 40;
  status CLOSED;
  mean_replacement_time 3600;
}
object fuse {
  name R5-12-47-5_fuse_106;
// downstream 124.31 kva on ABCS
  phases ABCN;
  from R5-12-47-5_node_651;
  to R5-12-47-5_node_674;
  current_limit 40;
  status CLOSED;
  mean_replacement_time 3600;
}
object fuse {
  name R5-12-47-5_fuse_107;
// downstream 71.70 kva on AS
  phases AN;
  from R5-12-47-5_node_1030;
  to R5-12-47-5_node_1031;
  current_limit 40;
  status CLOSED;
  mean_replacement_time 3600;
}
object fuse {
  name R5-12-47-5_fuse_108;
// downstream 46.26 kva on ACS
  phases ABCN;
  from R5-12-47-5_node_261;
  to R5-12-47-5_node_265;
  current_limit 40;
  status CLOSED;
  mean_replacement_time 3600;
}
object fuse {
  name R5-12-47-5_fuse_109;
// downstream 42.53 kva on ACS
  phases ACN;
  from R5-12-47-5_node_498;
  to R5-12-47-5_node_494;
  current_limit 40;
  status CLOSED;
  mean_replacement_time 3600;
}
object fuse {
  name R5-12-47-5_fuse_110;
// downstream 33.01 kva on AS
  phases AN;
  from R5-12-47-5_node_25;
  to R5-12-47-5_node_42;
  current_limit 40;
  status CLOSED;
  mean_replacement_time 3600;
}
object fuse {
  name R5-12-47-5_fuse_111;
// downstream 57.97 kva on BS
  phases BN;
  from R5-12-47-5_node_25;
  to R5-12-47-5_node_37;
  current_limit 40;
...